Version 4
SHEET 1 880 680
WIRE -368 -448 -368 -464
WIRE -368 -416 -368 -448
WIRE -800 -400 -912 -400
WIRE -768 -400 -800 -400
WIRE -656 -400 -688 -400
WIRE -608 -400 -656 -400
WIRE -416 -400 -528 -400
WIRE -912 -304 -912 -400
WIRE -896 -304 -912 -304
WIRE -800 -288 -800 -400
WIRE -800 -288 -832 -288
WIRE -656 -288 -656 -400
WIRE -592 -288 -656 -288
WIRE -992 -272 -1056 -272
WIRE -896 -272 -912 -272
WIRE -416 -272 -416 -400
WIRE -416 -272 -528 -272
WIRE -1056 -144 -1056 -192
WIRE -912 -128 -912 -272
WIRE -736 -128 -912 -128
WIRE -416 -128 -416 -272
WIRE -416 -128 -672 -128
FLAG -368 -544 VCC
FLAG -368 -336 -VEE
FLAG -368 -448 0
FLAG -1056 -144 0
FLAG -592 -256 0
FLAG -560 -304 VCC
FLAG -864 -320 VCC
FLAG -560 -240 -VEE
FLAG -864 -256 -VEE
SYMBOL voltage -368 -560 R0
WINDOW 123 0 0 Left 0
WINDOW 39 0 0 Left 0
SYMATTR InstName V1
SYMATTR Value 12
SYMBOL voltage -368 -432 R0
WINDOW 123 0 0 Left 0
WINDOW 39 0 0 Left 0
SYMATTR InstName V2
SYMATTR Value 12
SYMBOL voltage -1056 -288 R0
WINDOW 123 24 44 Left 2
WINDOW 39 0 0 Left 0
SYMATTR InstName V4
SYMATTR Value ""
SYMATTR Value2 AC 1
SYMBOL res -896 -288 R90
WINDOW 0 0 56 VBottom 2
WINDOW 3 32 56 VTop 2
SYMATTR InstName R6
SYMATTR Value 0.00001
SYMBOL OpAmps\\UniversalOpamp2 -864 -288 R0
SYMATTR InstName U1
SYMBOL cap -672 -144 R90
WINDOW 0 0 32 VBottom 2
WINDOW 3 32 32 VTop 2
SYMATTR InstName C1
SYMATTR Value 1µ
SYMBOL OpAmps\\UniversalOpamp2 -560 -272 R0
SYMATTR InstName U2
SYMBOL res -512 -416 R90
WINDOW 0 0 56 VBottom 2
WINDOW 3 32 56 VTop 2
SYMATTR InstName R1
SYMATTR Value 10k
SYMBOL res -672 -416 R90
WINDOW 0 0 56 VBottom 2
WINDOW 3 32 56 VTop 2
SYMATTR InstName R2
SYMATTR Value 1k
TEXT -272 -120 Left 2 !.ac dec 1k 1 100k
