Version 4
SHEET 1 880 680
WIRE -704 -336 -864 -336
WIRE -528 -304 -576 -304
WIRE -416 -304 -448 -304
WIRE -960 -272 -1008 -272
WIRE -864 -272 -864 -336
WIRE -864 -272 -880 -272
WIRE -832 -272 -864 -272
WIRE -576 -272 -576 -304
WIRE -704 -256 -704 -336
WIRE -704 -256 -752 -256
WIRE -416 -256 -416 -304
WIRE -576 -176 -576 -192
WIRE -1008 -144 -1008 -192
FLAG -1008 -144 0
FLAG -832 -240 0
FLAG -576 -176 0
FLAG -416 -176 0
SYMBOL voltage -1008 -288 R0
WINDOW 123 1 -38 Left 2
WINDOW 39 0 0 Left 0
WINDOW 0 -2 -10 Left 2
SYMATTR Value2 AC 1
SYMATTR InstName V4
SYMATTR Value ""
SYMBOL SpecialFunctions\\ota -800 -320 R0
WINDOW 3 0 0 Invisible 0
SYMATTR Value G=200u Vlow=-1
SYMATTR InstName A1
SYMBOL res -432 -272 R0
SYMATTR InstName R3
SYMATTR Value 5k
SYMBOL voltage -576 -288 R0
WINDOW 123 -92 56 Left 2
WINDOW 39 0 0 Left 0
WINDOW 0 -90 21 Left 2
SYMATTR Value2 AC 1
SYMATTR InstName V1
SYMATTR Value ""
SYMBOL res -864 -288 R90
WINDOW 0 0 56 VBottom 2
WINDOW 3 32 56 VTop 2
SYMATTR InstName R1
SYMATTR Value 5k
SYMBOL res -432 -320 R90
WINDOW 0 0 56 VBottom 2
WINDOW 3 32 56 VTop 2
SYMATTR InstName R2
SYMATTR Value 5k
TEXT -272 -120 Left 2 !.ac dec 1k 1 100k
TEXT -584 -360 Left 2 ;R3 =1/gm
