Version 4
SHEET 1 880 680
WIRE -960 -304 -1008 -304
WIRE -944 -304 -960 -304
WIRE -816 -304 -864 -304
WIRE -768 -304 -816 -304
WIRE -672 -304 -688 -304
WIRE -608 -304 -672 -304
WIRE -608 -272 -608 -304
WIRE -1008 -256 -1008 -304
WIRE -816 -256 -816 -304
WIRE -960 -160 -960 -304
WIRE -832 -160 -832 -192
WIRE -832 -160 -960 -160
WIRE -800 -160 -800 -192
WIRE -672 -160 -672 -304
WIRE -672 -160 -800 -160
WIRE -608 -160 -608 -192
WIRE -1008 -144 -1008 -176
FLAG -1008 -144 0
FLAG -608 -160 0
SYMBOL voltage -1008 -272 R0
WINDOW 123 -95 45 Left 2
WINDOW 39 0 0 Left 0
WINDOW 0 -92 72 Left 2
SYMATTR Value2 AC 1
SYMATTR InstName V4
SYMATTR Value ""
SYMBOL res -848 -320 R90
WINDOW 0 0 56 VBottom 2
WINDOW 3 32 56 VTop 2
SYMATTR InstName R1
SYMATTR Value 3k
SYMBOL res -672 -320 R90
WINDOW 0 0 56 VBottom 2
WINDOW 3 32 56 VTop 2
SYMATTR InstName R4
SYMATTR Value 3k
SYMBOL res -624 -288 R0
SYMATTR InstName ZL
SYMATTR Value 500k
SYMBOL OpAmps\\opamp -880 -224 R270
SYMATTR InstName U1
TEXT -272 -120 Left 2 !.ac dec 1k 1 100k
TEXT -264 -144 Left 2 !.inc opamp.sub
