Version 4
SHEET 1 1396 760
WIRE -416 -240 -992 -240
WIRE -480 -208 -512 -208
WIRE -512 -192 -512 -208
WIRE -416 -192 -416 -240
WIRE -768 -144 -800 -144
WIRE -624 -144 -656 -144
WIRE -800 -112 -800 -144
WIRE -656 -112 -656 -144
WIRE -480 -64 -480 -208
WIRE -416 -64 -416 -112
WIRE -416 -64 -480 -64
WIRE -128 -64 -128 -80
WIRE -16 -64 -128 -64
WIRE -480 -16 -480 -64
WIRE -432 -16 -480 -16
WIRE -304 -16 -352 -16
WIRE -992 0 -992 -240
WIRE -800 0 -800 -32
WIRE -800 0 -992 0
WIRE -800 32 -800 0
WIRE -768 32 -768 -144
WIRE -656 32 -656 -32
WIRE -624 32 -624 -144
WIRE -512 32 -512 -112
WIRE -480 32 -480 -16
WIRE -1168 160 -1232 160
WIRE -992 160 -1088 160
WIRE -1232 192 -1232 160
WIRE -304 224 -304 -16
WIRE -304 224 -368 224
WIRE -992 288 -1008 288
WIRE -976 288 -992 288
WIRE -1232 336 -1232 272
WIRE -1008 336 -1008 288
WIRE -608 384 -608 320
FLAG -1232 336 0
FLAG -608 384 0
FLAG -16 -64 0
FLAG -128 -160 +V
FLAG -368 288 +V
FLAG -128 16 -V
FLAG -368 128 -V
FLAG -480 320 0
FLAG -1008 416 0
SYMBOL voltage -1232 176 R0
WINDOW 123 24 124 Left 2
WINDOW 39 0 0 Left 0
SYMATTR Value2 AC 1
SYMATTR InstName V1
SYMATTR Value ""
SYMBOL res -336 -32 R90
WINDOW 0 0 56 VBottom 2
WINDOW 3 32 56 VTop 2
SYMATTR InstName R7
SYMATTR Value {R7}
SYMBOL res -400 -96 R180
WINDOW 0 36 76 Left 2
WINDOW 3 36 40 Left 2
SYMATTR InstName R8
SYMATTR Value {R8}
SYMBOL res -496 -96 R180
WINDOW 0 36 76 Left 2
WINDOW 3 36 40 Left 2
SYMATTR InstName R9
SYMATTR Value {R9}
SYMBOL AutoGenerated\\UAF42 -240 384 R0
SYMATTR InstName U5
SYMBOL res -784 -16 R180
WINDOW 0 36 76 Left 2
WINDOW 3 36 40 Left 2
SYMATTR InstName R1
SYMATTR Value 2.2Meg
SYMBOL res -640 -16 R180
WINDOW 0 36 76 Left 2
WINDOW 3 36 40 Left 2
SYMATTR InstName R2
SYMATTR Value 4.7Meg
SYMBOL voltage -128 -176 R0
WINDOW 123 0 0 Left 0
WINDOW 39 0 0 Left 0
WINDOW 0 33 16 Left 2
WINDOW 3 -74 52 Left 2
SYMATTR InstName V2
SYMATTR Value 12
SYMBOL voltage -128 -80 R0
WINDOW 123 0 0 Left 0
WINDOW 39 0 0 Left 0
WINDOW 0 43 65 Left 2
SYMATTR InstName V3
SYMATTR Value 12
SYMBOL res -1072 144 R90
WINDOW 0 0 56 VBottom 2
WINDOW 3 32 56 VTop 2
SYMATTR InstName RG
SYMATTR Value 50k
SYMBOL res -1024 320 R0
SYMATTR InstName RQ
SYMATTR Value 22k
TEXT -1200 48 Left 2 !.ac dec 1k 1 10k
TEXT -1456 -72 Left 2 !.param R7=10k R9=R7/c R8=R7/a
TEXT -1456 -32 Left 2 !.param a=1 c=a
