Version 4
SHEET 1 880 680
WIRE -32 80 -128 80
WIRE 96 80 48 80
WIRE 240 80 176 80
WIRE 336 80 240 80
WIRE 416 96 400 96
WIRE 432 96 416 96
WIRE 560 96 512 96
WIRE 704 96 640 96
WIRE 336 112 288 112
WIRE -128 144 -128 80
WIRE 240 144 240 80
WIRE 288 160 288 112
WIRE 416 160 416 96
WIRE 416 160 288 160
WIRE 704 160 704 96
WIRE 240 256 240 208
WIRE -128 272 -128 224
WIRE 704 272 704 224
FLAG 240 256 0
FLAG 704 272 0
FLAG -128 272 0
SYMBOL res 64 64 R90
WINDOW 0 0 56 VBottom 2
WINDOW 3 32 56 VTop 2
SYMATTR InstName R1
SYMATTR Value 1
SYMBOL ind 192 64 R90
WINDOW 0 5 56 VBottom 2
WINDOW 3 32 56 VTop 2
SYMATTR InstName L1
SYMATTR Value 72.79µHy
SYMBOL cap 224 144 R0
SYMATTR InstName C1
SYMATTR Value 249.07µF
SYMBOL OpAmps\\opamp 368 160 M180
SYMATTR InstName U1
SYMBOL res 528 80 R90
WINDOW 0 0 56 VBottom 2
WINDOW 3 32 56 VTop 2
SYMATTR InstName R2
SYMATTR Value 1
SYMBOL ind 656 80 R90
WINDOW 0 5 56 VBottom 2
WINDOW 3 32 56 VTop 2
SYMATTR InstName L2
SYMATTR Value 176.19µHy
SYMBOL cap 688 160 R0
SYMATTR InstName C2
SYMATTR Value 102.66µF
SYMBOL voltage -128 128 R0
WINDOW 123 24 124 Left 2
WINDOW 39 0 0 Left 0
SYMATTR InstName V1
SYMATTR Value ""
SYMATTR Value2 AC 1
TEXT 328 288 Left 2 !.ac dec 1k 1 100k
TEXT 336 312 Left 2 !.inc opamp.sub
