Version 4
SHEET 1 2160 712
WIRE 1456 -48 1136 -48
WIRE 1312 -16 1248 -16
WIRE 1136 0 1136 -48
WIRE 1168 0 1136 0
WIRE 2112 16 2048 16
WIRE 1968 32 1936 32
WIRE -32 80 -128 80
WIRE 96 80 48 80
WIRE 240 80 160 80
WIRE 336 80 240 80
WIRE 416 96 400 96
WIRE 432 96 416 96
WIRE 560 96 512 96
WIRE 704 96 624 96
WIRE 912 96 816 96
WIRE 1040 96 992 96
WIRE 1136 96 1136 0
WIRE 1136 96 1104 96
WIRE 1184 96 1136 96
WIRE 336 112 288 112
WIRE 1312 112 1312 -16
WIRE 1312 112 1264 112
WIRE 1456 112 1456 -48
WIRE 1536 112 1456 112
WIRE 1616 128 1600 128
WIRE 1632 128 1616 128
WIRE 1760 128 1712 128
WIRE 1904 128 1824 128
WIRE 1936 128 1936 32
WIRE 1936 128 1904 128
WIRE 1984 128 1936 128
WIRE -128 144 -128 80
WIRE 240 144 240 80
WIRE 704 144 704 96
WIRE 1536 144 1488 144
WIRE 2112 144 2112 16
WIRE 2112 144 2064 144
WIRE 288 160 288 112
WIRE 416 160 416 96
WIRE 416 160 288 160
WIRE 816 160 816 96
WIRE 1488 192 1488 144
WIRE 1616 192 1616 128
WIRE 1616 192 1488 192
WIRE 240 256 240 224
WIRE -128 272 -128 224
WIRE 704 272 704 224
WIRE 816 288 816 240
WIRE -32 464 -128 464
WIRE 96 464 48 464
WIRE 240 464 160 464
WIRE 336 464 240 464
WIRE 416 480 400 480
WIRE 432 480 416 480
WIRE 560 480 512 480
WIRE 704 480 624 480
WIRE 336 496 288 496
WIRE -128 528 -128 464
WIRE 240 528 240 464
WIRE 704 528 704 480
WIRE 288 544 288 496
WIRE 416 544 416 480
WIRE 416 544 288 544
WIRE 240 640 240 608
WIRE -128 656 -128 608
WIRE 704 656 704 608
FLAG 240 256 0
FLAG 704 272 0
FLAG -128 272 0
FLAG 816 288 0
FLAG 1184 128 0
FLAG 1312 176 0
FLAG 1248 16 0
FLAG 1984 160 0
FLAG 2112 208 0
FLAG 2048 48 0
FLAG 240 640 0
FLAG 704 656 0
FLAG -128 656 0
FLAG 704 96 Vo
FLAG 1904 128 Vo_2
FLAG 704 480 Vo_n
SYMBOL res 64 64 R90
WINDOW 0 0 56 VBottom 2
WINDOW 3 32 56 VTop 2
SYMATTR InstName R1
SYMATTR Value 1
SYMBOL ind 256 240 R180
WINDOW 0 36 80 Left 2
WINDOW 3 36 40 Left 2
SYMATTR InstName L1
SYMATTR Value 29µ
SYMBOL cap 160 64 R90
WINDOW 0 0 32 VBottom 2
WINDOW 3 32 32 VTop 2
SYMATTR InstName C1
SYMATTR Value 99.64µ
SYMBOL OpAmps\\opamp 368 160 M180
SYMATTR InstName U1
SYMBOL res 528 80 R90
WINDOW 0 0 56 VBottom 2
WINDOW 3 32 56 VTop 2
SYMATTR InstName R2
SYMATTR Value 1
SYMBOL ind 720 240 R180
WINDOW 0 36 80 Left 2
WINDOW 3 36 40 Left 2
SYMATTR InstName L2
SYMATTR Value 70.47µ
SYMBOL cap 624 80 R90
WINDOW 0 0 32 VBottom 2
WINDOW 3 32 32 VTop 2
SYMATTR InstName C2
SYMATTR Value 41.069µ
SYMBOL voltage -128 128 R0
WINDOW 123 24 124 Left 2
WINDOW 39 0 0 Left 0
SYMATTR Value2 AC 1
SYMATTR InstName V1
SYMATTR Value ""
SYMBOL res 1008 80 R90
WINDOW 0 0 56 VBottom 2
WINDOW 3 32 56 VTop 2
SYMATTR InstName R3
SYMATTR Value 1
SYMBOL cap 1104 80 R90
WINDOW 0 0 32 VBottom 2
WINDOW 3 32 32 VTop 2
SYMATTR InstName C3
SYMATTR Value 99.64µ
SYMBOL voltage 816 144 R0
WINDOW 123 24 124 Left 2
WINDOW 39 0 0 Left 0
SYMATTR Value2 AC 1
SYMATTR InstName V2
SYMATTR Value ""
SYMBOL SpecialFunctions\\ota 1216 176 M180
WINDOW 3 -101 -43 Left 2
SYMATTR InstName A1
SYMATTR Value G = 5.87m Vlow=-1
SYMBOL SpecialFunctions\\ota 1216 -64 M0
WINDOW 3 -141 -29 Left 2
SYMATTR InstName A2
SYMATTR Value G = 5.87m Vlow=-1
SYMBOL cap 1296 112 R0
SYMATTR InstName C4
SYMATTR Value 1n
SYMBOL OpAmps\\opamp 1568 192 M180
SYMATTR InstName U2
SYMBOL res 1728 112 R90
WINDOW 0 0 56 VBottom 2
WINDOW 3 32 56 VTop 2
SYMATTR InstName R4
SYMATTR Value 1
SYMBOL cap 1824 112 R90
WINDOW 0 0 32 VBottom 2
WINDOW 3 32 32 VTop 2
SYMATTR InstName C5
SYMATTR Value 41.069µ
SYMBOL SpecialFunctions\\ota 2016 208 M180
WINDOW 3 -101 -43 Left 2
SYMATTR InstName A3
SYMATTR Value G = 3.77m Vlow=-1
SYMBOL SpecialFunctions\\ota 2016 -32 M0
WINDOW 3 -141 -29 Left 2
SYMATTR InstName A4
SYMATTR Value G = 3.77m Vlow=-1
SYMBOL cap 2096 144 R0
SYMATTR InstName C6
SYMATTR Value 1n
SYMBOL res 64 448 R90
WINDOW 0 0 56 VBottom 2
WINDOW 3 32 56 VTop 2
SYMATTR InstName R5
SYMATTR Value 1
SYMBOL ind 256 624 R180
WINDOW 0 36 80 Left 2
WINDOW 3 36 40 Left 2
SYMATTR InstName L3
SYMATTR Value 0.64
SYMBOL cap 160 448 R90
WINDOW 0 0 32 VBottom 2
WINDOW 3 32 32 VTop 2
SYMATTR InstName C7
SYMATTR Value 2.19
SYMBOL OpAmps\\opamp 368 544 M180
SYMATTR InstName U3
SYMBOL res 528 464 R90
WINDOW 0 0 56 VBottom 2
WINDOW 3 32 56 VTop 2
SYMATTR InstName R6
SYMATTR Value 1
SYMBOL ind 720 624 R180
WINDOW 0 36 80 Left 2
WINDOW 3 36 40 Left 2
SYMATTR InstName L4
SYMATTR Value 1.54
SYMBOL cap 624 464 R90
WINDOW 0 0 32 VBottom 2
WINDOW 3 32 32 VTop 2
SYMATTR InstName C8
SYMATTR Value 0.9
SYMBOL voltage -128 512 R0
WINDOW 123 24 124 Left 2
WINDOW 39 0 0 Left 0
SYMATTR Value2 AC 1
SYMATTR InstName V3
SYMATTR Value ""
TEXT 328 288 Left 2 !;ac dec 1k 100 100k
TEXT 336 312 Left 2 !.inc opamp.sub
TEXT 328 672 Left 2 !.ac dec 1k 0.01 100
TEXT 136 -16 Left 2 ;Circuito Pasa Altos de 4to Orden
TEXT 968 320 Left 2 ;Circuito Pasa Altos de 4to Orden\ncon Inductores Activados
TEXT 144 392 Left 2 ;Circuito Pasa Altos de 4to Orden\nnormalizado en frecuencia-impedancia
