Version 4
SHEET 1 880 680
WIRE 144 32 96 32
WIRE 272 32 208 32
WIRE 32 96 -48 96
WIRE 96 96 96 32
WIRE 96 96 32 96
WIRE 272 96 272 32
WIRE 320 96 272 96
WIRE 448 96 320 96
WIRE 448 112 448 96
WIRE 32 128 32 96
WIRE 320 128 320 96
WIRE -48 144 -48 96
WIRE 96 144 96 96
WIRE 128 144 96 144
WIRE 272 144 272 96
WIRE 272 144 208 144
WIRE -48 256 -48 224
WIRE 32 256 32 192
WIRE 32 256 -48 256
WIRE 160 256 32 256
WIRE 320 256 320 192
WIRE 320 256 160 256
WIRE 448 256 448 192
WIRE 448 256 320 256
FLAG 160 256 0
FLAG 448 96 VRL
SYMBOL cap 16 128 R0
SYMATTR InstName C1
SYMATTR Value 1.5882
SYMBOL cap 208 16 R90
WINDOW 0 0 32 VBottom 2
WINDOW 3 32 32 VTop 2
SYMATTR InstName C2
SYMATTR Value 0.0934
SYMBOL ind 224 128 R90
WINDOW 0 5 56 VBottom 2
WINDOW 3 32 56 VTop 2
SYMATTR InstName L1
SYMATTR Value 1.1893
SYMBOL cap 304 128 R0
SYMATTR InstName C3
SYMATTR Value 0.4176
SYMBOL current -48 224 R180
WINDOW 0 24 80 Left 2
WINDOW 3 24 0 Left 2
WINDOW 123 24 -28 Left 2
WINDOW 39 0 0 Left 0
SYMATTR InstName I1
SYMATTR Value ""
SYMATTR Value2 AC 1
SYMBOL res 432 96 R0
SYMATTR InstName RL
SYMATTR Value 1
TEXT 112 312 Left 2 !.ac dec 1k 0.1 10
